*KEYWORD
$> Include file: F:\00_word\CAB_0729\test\11111\MAT.K
$> (Used by master file: F:\00_word\CAB_0729\test\11111\main.key)
$> 
$> Primer17.1 created on: Thu Jul 30 01:47:10 2026
$> LS-DYNA version: 971R3
$> 
$> end_saved_comments
$
$
$
$ ===============
$ PARAMETER cards
$ ===============
$
*PARAMETER
R TTF            0.0
$
$
$ ====================
$ MAT (Material) cards
$ ====================
$
*MAT_NULL_TITLE
null
  74000001    9.0E-6       0.0       0.0       0.0       0.0      50.0      0.03
$
*MAT_FABRIC
  84450005    1.1E-6      0.18      0.18                 0.0          
   5.88E-4                           1.0     0.001      0.35     0.003      0.15
       0.0       0.0       0.0       0.0       1.0      14.0       8.0       -15
                                     0.0       0.0       0.0       0.0       0.0
       0.0       0.0       0.0       0.0       0.0       0.0       0.0
        16        17        18       -19       -20         0
$
*MAT_RIGID
  84450006    7.8E-6     210.0       0.3       0.0       0.0       0.0          
       1.0       7.0       7.0
         0       0.0       0.0       0.0       0.0       0.0
$
$
$
$ ============
$ DEFINE cards
$ ============
$
$
*DEFINE_CURVE
$:
$: Cross-reference summary for Load-curve 15
$: -----------------------------------------------
$:
$: Structural material 84450005 : Tensile stress cutoff factor
$: X axis : Time                       (Units: Time)
$: Y axis : Tensile stress cutoff factor  (Units: Scalar, no units)
$:
$: Usage: Transient analysis
$:
        15         0       1.0       1.0&TTF             0.0         0
                 0.0                 0.0
                20.0                 1.0
               120.0                 1.0
$
$
*DEFINE_CURVE
$:
$: Cross-reference summary for Load-curve 16
$: -----------------------------------------------
$:
$: Structural material 84450005 : stress vs strain along a-axis
$: X axis : Effective strain           (Units: Strain)
$: Y axis : Effective stress           (Units: Stress)
$:
$: Usage: Transient analysis
$:
        16         0       1.0       1.0       0.0       0.0         0
                 0.0                 0.0
        0.0050189998            0.002596
            0.010019            0.005051
            0.015018        0.0073179998
            0.020018        0.0095159998
         0.025017999            0.011411
            0.030018            0.013247
         0.035018001            0.014732
         0.040017001            0.016152
            0.045017         0.017263001
         0.050016999            0.018328
         0.055016998            0.019267
         0.060017001         0.020199001
         0.065016001         0.021083999
         0.070015997            0.021992
         0.075015999            0.023046
         0.080016002            0.024191
         0.085015997            0.025899
            0.090016         0.027713001
$ ... 32 like lines cut
$
$
*DEFINE_CURVE
$:
$: Cross-reference summary for Load-curve 17
$: -----------------------------------------------
$:
$: Structural material 84450005 : stress vs strain along b-axis
$: X axis : Effective strain           (Units: Strain)
$: Y axis : Effective stress           (Units: Stress)
$:
$: Usage: Transient analysis
$:
        17         0       1.0       1.0       0.0       0.0         0
                 0.0                 0.0
        0.0050079999            0.002843
        0.0099980002        0.0058019999
            0.014988        0.0082369996
            0.019977             0.01058
            0.024966            0.012644
            0.029956            0.014609
         0.034945998         0.016225999
            0.039935            0.017764
         0.044925001            0.018957
         0.049913999            0.020116
         0.054903999            0.021156
         0.059893001         0.022189001
         0.064883001         0.023182999
         0.069871999            0.024194
         0.074862003            0.025402
         0.079851002             0.02667
         0.084840998            0.028245
         0.089830004         0.029882999
$ ... 32 like lines cut
$
$
*DEFINE_CURVE
$:
$: Cross-reference summary for Load-curve 18
$: -----------------------------------------------
$:
$: Structural material 84450005 : shear stress vs strain in ab-plane
$: X axis : Effective strain           (Units: Strain)
$: Y axis : Effective stress           (Units: Stress)
$:
$: Usage: Transient analysis
$:
        18         0       1.0       1.0       0.0       0.0         0
         -0.49890301       -0.0062839999
         -0.48892599       -0.0057560001
           -0.478948       -0.0052800002
         -0.46897101       -0.0048529999
           -0.458994            -0.00447
           -0.449016       -0.0041240002
         -0.43904001       -0.0038139999
         -0.42906201       -0.0035349999
           -0.419085       -0.0032840001
         -0.40910801           -0.003058
         -0.39912999       -0.0028510001
           -0.389153           -0.002658
         -0.37917501           -0.002475
         -0.36919799       -0.0023010001
            -0.35922           -0.002137
           -0.349244           -0.001985
         -0.33926699           -0.001845
         -0.32928899           -0.001714
         -0.31931201           -0.001589
$ ... 82 like lines cut
$
$
*DEFINE_CURVE
$:
$: Cross-reference summary for Load-curve 19
$: -----------------------------------------------
$:
$: Structural material 84450005 : stress vs strain along a-axis (scaled)
$: X axis : Effective strain           (Units: Strain)
$: Y axis : Effective stress (scaled)  (Units: Stress)
$:
$: Usage: Transient analysis
$:
        19         0       1.0       1.0       0.0       0.0         0
                 0.0                 0.0
        0.0099999998              3.1E-5
               0.015        1.4800001E-4
                0.02             2.39E-4
            0.024999             3.32E-4
         0.029998999        4.2600001E-4
         0.034999002        5.2200002E-4
         0.039999001             6.12E-4
            0.044999        6.6700001E-4
            0.049998             7.18E-4
         0.054997999        7.9299998E-4
         0.059997998             8.94E-4
         0.064998001             9.94E-4
         0.069998004            0.001057
         0.074997999            0.001112
         0.079997003            0.001197
         0.084996998            0.001331
         0.089997001            0.001469
         0.094997004             0.00165
$ ... 31 like lines cut
$
$
*DEFINE_CURVE
$:
$: Cross-reference summary for Load-curve 20
$: -----------------------------------------------
$:
$: Structural material 84450005 : stress vs strain along b-axis (scaled)
$: X axis : Effective strain           (Units: Strain)
$: Y axis : Effective stress (scaled)  (Units: Stress)
$:
$: Usage: Transient analysis
$:
        20         0       1.0       1.0       0.0       0.0         0
                 0.0                 0.0
            0.006019        7.0000001E-6
            0.011009              1.5E-5
            0.015998             1.89E-4
         0.020988001             3.14E-4
         0.025977001        4.3399999E-4
         0.030967001        5.5599998E-4
         0.035955999              6.8E-4
         0.040945999        8.0500002E-4
         0.045935001        9.1599999E-4
         0.050925002        9.8400004E-4
            0.055914            0.001052
            0.060904            0.001141
         0.065893002            0.001274
         0.070882998             0.00141
         0.075871997            0.001516
         0.080862001            0.001589
         0.085851997            0.001663
         0.090841003            0.001802
$ ... 30 like lines cut
$
$
*END
